#******************************************************************
units           metal
atom_style      atomic
boundary        p p p

lattice         custom 1.11979 a1 1.0 0.0 0.0 a2 0.0 1.0 0.0 a3 0.0 0.0 2.89160467587673                 basis 0.0000000000000000  0.0000000000000000  0.5000000000000000                 basis 0.5000000000000000  0.5000000000000000  0.0000000000000000                 basis 0.0000000000000000  0.5000000000000000  0.7500000000000000                 basis 0.5000000000000000  0.0000000000000000  0.2500000000000000
Lattice spacing in x,y,z = 1.11979 1.11979 3.23799

region          R_box prism -6 6 -6 6 -2 2 0 0 0
create_box      1 R_box
Created triclinic box = (-6.71874 -6.71874 -6.47598) to (6.71874 6.71874 6.47598) with tilt (0 0 0)
create_atoms    1 box basis 1 1                       basis 2 1                       basis 3 1                       basis 4 1
Created 2304 atoms
# H deep potential
pair_style      deepmd H.pb fparam $T
pair_style      deepmd H.pb fparam 200
Summary of lammps deepmd module ...
  >>> Info of deepmd-kit:
  installed to:       /work/home/acl7i3im69/soft/deepmd-kit
  source:
  source branch:      HEAD
  source commit:      c45d372
  source commit at:   2024-07-07 08:06:13 +0000
  support model ver.: 1.1
  build variant:      cuda
  build with tf inc:  /work/home/acl7i3im69/soft/deepmd-kit/lib/python3.11/site-packages/tensorflow/include;/work/home/acl7i3im69/soft/deepmd-kit/include
  build with tf lib:  /work/home/acl7i3im69/soft/deepmd-kit/lib/python3.11/site-packages/tensorflow/libtensorflow_cc.so.2
  set tf intra_op_parallelism_threads: 0
  set tf inter_op_parallelism_threads: 4
  >>> Info of lammps module:
  use deepmd-kit at:  /work/home/acl7i3im69/soft/deepmd-kitpair_coeff      * *
mass            1 1.000000

neighbor        1 bin
neigh_modify    every 10 delay 0 check no

compute         pe all pe/atom
compute         ke all ke/atom

thermo          100
thermo_style    custom step pe vol density enthalpy press pxx pyy pzz pxy pxz pyz

# 1. dump files of pristine structure with different alatt
reset_timestep  0
dump            1 all cfg 1 bulk.*.cfg mass type xs ys zs id c_pe
dump_modify     1 element H
run             0

CITE-CITE-CITE-CITE-CITE-CITE-CITE-CITE-CITE-CITE-CITE-CITE-CITE

Your simulation uses code contributions which should be cited:

- USER-DEEPMD package:

@article{Wang_ComputPhysCommun_2018_v228_p178,
  author = {Wang, Han and Zhang, Linfeng and Han, Jiequn and E, Weinan},
  doi = {10.1016/j.cpc.2018.03.016},
  url = {https://doi.org/10.1016/j.cpc.2018.03.016},
  year = 2018,
  month = {jul},
  publisher = {Elsevier {BV}},
  volume = 228,
  journal = {Comput. Phys. Commun.},
  title = {{DeePMD-kit: A deep learning package for many-body potential energy representation and molecular dynamics}},
  pages = {178--184}
}
@misc{Zeng_JChemPhys_2023_v159_p054801,
  title  = {{DeePMD-kit v2: A software package for deep potential models}},
  author =   {Jinzhe Zeng and Duo Zhang and Denghui Lu and Pinghui Mo and Zeyu Li
         and Yixiao Chen and Mari{\'a}n Rynik and Li'ang Huang and Ziyao Li and
         Shaochen Shi and Yingze Wang and Haotian Ye and Ping Tuo and Jiabin
         Yang and Ye Ding and Yifan Li and Davide Tisi and Qiyu Zeng and Han
         Bao and Yu Xia and Jiameng Huang and Koki Muraoka and Yibo Wang and
         Junhan Chang and Fengbo Yuan and Sigbj{\o}rn L{\o}land Bore and Chun
         Cai and Yinnian Lin and Bo Wang and Jiayan Xu and Jia-Xin Zhu and
         Chenxing Luo and Yuzhi Zhang and Rhys E A Goodall and Wenshuo Liang
         and Anurag Kumar Singh and Sikai Yao and Jingchao Zhang and Renata
         Wentzcovitch and Jiequn Han and Jie Liu and Weile Jia and Darrin M
         York and Weinan E and Roberto Car and Linfeng Zhang and Han Wang},
  journal =  {J. Chem. Phys.},
  volume =   159,
  issue =    5,
  year =    2023,
  pages  =   054801,
  doi =      {10.1063/5.0155600},
}

CITE-CITE-CITE-CITE-CITE-CITE-CITE-CITE-CITE-CITE-CITE-CITE-CITE

Generated 0 of 0 mixed pair_coeff terms from geometric mixing rule
Step         PotEng         Volume        Density        Enthalpy        Press           Pxx            Pyy            Pzz            Pxy            Pxz            Pyz
0  -1101.7717      2338.6819      1.6359137      8632.1936      6668512.9      6879667.9      6879667.9      6246203        4.9723436e-12 -3.7325853e-11 -8.3664673e-13
Loop time of 1.68e-06 on 2 procs for 0 steps with 2304 atoms

shell           mv bulk.0.cfg bulk.cfg
undump          1

# 2. create voids
# ---change this part --- begin----
variable        radius equal 0.01 # unit : A
variable        x1 equal 0.0
variable        y1 equal 0.0
variable        z1 equal 0.5
region          bRR1 sphere 0 0 0.5 0.01 units lattice

variable        x2 equal 0.0
variable        y2 equal 0.5
variable        z2 equal 0.75
region          bRR2 sphere 0 0.5 0.75 0.01 units lattice

variable        x3 equal 0.5
variable        y3 equal 0.0
variable        z3 equal 0.25
region          bRR3 sphere 0.5 0 0.25 0.01 units lattice

variable        x4 equal 0.0
variable        y4 equal -0.5
variable        z4 equal 0.75
region          bRR4 sphere 0 -0.5 0.75 0.01 units lattice

variable        x5 equal -0.5
variable        y5 equal 0.0
variable        z5 equal 0.25
region          bRR5 sphere -0.5 0 0.25 0.01 units lattice

variable        x6 equal 0.0
variable        y6 equal 1.0
variable        z6 equal 0.5
region          bRR6 sphere 0 1 0.5 0.01 units lattice

region          bRR union 6 bRR1 bRR2 bRR3 bRR4 bRR5 bRR6
variable        bNN equal count(all,bRR)
variable        bNN equal 6

delete_atoms    region bRR
Deleted 6 atoms, new total = 2298
region          bRR1 delete
region          bRR2 delete
region          bRR3 delete
region          bRR4 delete
region          bRR5 delete
region          bRR6 delete

region          bRR delete
delete atoms=6
# ---change this part --- end ----
# 3. run nvt
variable        dt equal 0.0002   # fs
variable        tdamp equal 100*0.0002
timestep        0.0002
velocity        all create 200 8713 dist gaussian rot yes
fix             1 all nvt temp 200 200 0.02

variable        DUMP_STEP equal 1000
variable        runtime equal 40 # unit: ps
variable        nsteps equal 40/0.0002

reset_timestep  0
dump            1 all cfg 1000 voids.*.cfg mass type xs ys zs id c_pe
dump_modify     1 element H
#dump_modify     1 element H

run             200000
Generated 0 of 0 mixed pair_coeff terms from geometric mixing rule
Step         PotEng         Volume        Density        Enthalpy        Press           Pxx            Pyy            Pzz            Pxy            Pxz            Pyz
0  -1111.3812      2338.6819      1.6316535      8671.0458      6661031.6      6868220.8      6868389.7      6246484.3     -2194.2584      182.17672     -573.39661
Averages over the last 1001 of 2001 rows, steps 100000 to 200000:
PotEng Volume Density Enthalpy Press Pxx Pyy Pzz Pxy Pxz Pyz
-1074.76 2338.68 1.63165 8701.22 6.65655e+06 6.74637e+06 6.79896e+06 6.42431e+06 557.375 2.49244 16.8662
Loop time of 7419.17 on 2 procs for 200000 steps with 2298 atoms

undump          1
unfix           1

quit
